/*---------------------------------------------------------------------------*\
  =========                 |
  \\      /  F ield         | OpenFOAM: The Open Source CFD Toolbox
   \\    /   O peration     | Website:  https://openfoam.org
    \\  /    A nd           | Version:  7
     \\/     M anipulation  |
\*---------------------------------------------------------------------------*/
Build  : 7-49b2b3b8b082
Exec   : blockMesh
Date   : Nov 06 2021
Time   : 15:27:33
Host   : "c437-124.stampede2.tacc.utexas.edu"
PID    : 210118
I/O    : uncollated
Case   : /work2/08396/ykhatri/stampede2/COE379L-Group-7/greenhouse-sims/vel15
nProcs : 1
sigFpe : Enabling floating point exception trapping (FOAM_SIGFPE).
fileModificationChecking : Monitoring run-time modified files using timeStampMaster (fileModificationSkew 10)
allowSystemOperations : Allowing user-supplied system call operations

// * * * * * * * * * * * * * * * * * * * * * * * * * * * * * * * * * * * * * //
Create time

Creating block mesh from
    "/work2/08396/ykhatri/stampede2/COE379L-Group-7/greenhouse-sims/vel15/system/blockMeshDict"
Using #calcEntry at line 17 in file "/work2/08396/ykhatri/stampede2/COE379L-Group-7/greenhouse-sims/vel15/system/blockMeshDict"
Using #codeStream with "/work2/08396/ykhatri/stampede2/COE379L-Group-7/greenhouse-sims/vel15/dynamicCode/platforms/linux64IccDPInt32Opt/lib/libcodeStream_76c83f1143a2796d59751098025d5f8454316b48.so"
Creating new library in "dynamicCode/_76c83f1143a2796d59751098025d5f8454316b48/platforms/linux64IccDPInt32Opt/lib/libcodeStream_76c83f1143a2796d59751098025d5f8454316b48.so"
Invoking "wmake -s libso /work2/08396/ykhatri/stampede2/COE379L-Group-7/greenhouse-sims/vel15/dynamicCode/_76c83f1143a2796d59751098025d5f8454316b48"
wmake libso /work2/08396/ykhatri/stampede2/COE379L-Group-7/greenhouse-sims/vel15/dynamicCode/_76c83f1143a2796d59751098025d5f8454316b48
    ln: ./lnInclude
    wmkdep: codeStreamTemplate.C
    Ctoo: codeStreamTemplate.C
    ld: /work2/08396/ykhatri/stampede2/COE379L-Group-7/greenhouse-sims/vel15/dynamicCode/_76c83f1143a2796d59751098025d5f8454316b48/../platforms/linux64IccDPInt32Opt/lib/libcodeStream_76c83f1143a2796d59751098025d5f8454316b48.so
Using #calcEntry at line 64 in file "/work2/08396/ykhatri/stampede2/COE379L-Group-7/greenhouse-sims/vel15/system/blockMeshDict"
Using #codeStream with "/work2/08396/ykhatri/stampede2/COE379L-Group-7/greenhouse-sims/vel15/dynamicCode/platforms/linux64IccDPInt32Opt/lib/libcodeStream_5ee58c7615dcb082092e299e5b657d0de019c757.so"
Creating new library in "dynamicCode/_5ee58c7615dcb082092e299e5b657d0de019c757/platforms/linux64IccDPInt32Opt/lib/libcodeStream_5ee58c7615dcb082092e299e5b657d0de019c757.so"
Invoking "wmake -s libso /work2/08396/ykhatri/stampede2/COE379L-Group-7/greenhouse-sims/vel15/dynamicCode/_5ee58c7615dcb082092e299e5b657d0de019c757"
wmake libso /work2/08396/ykhatri/stampede2/COE379L-Group-7/greenhouse-sims/vel15/dynamicCode/_5ee58c7615dcb082092e299e5b657d0de019c757
    ln: ./lnInclude
    wmkdep: codeStreamTemplate.C
    Ctoo: codeStreamTemplate.C
    ld: /work2/08396/ykhatri/stampede2/COE379L-Group-7/greenhouse-sims/vel15/dynamicCode/_5ee58c7615dcb082092e299e5b657d0de019c757/../platforms/linux64IccDPInt32Opt/lib/libcodeStream_5ee58c7615dcb082092e299e5b657d0de019c757.so
Using #calcEntry at line 65 in file "/work2/08396/ykhatri/stampede2/COE379L-Group-7/greenhouse-sims/vel15/system/blockMeshDict"
Using #codeStream with "/work2/08396/ykhatri/stampede2/COE379L-Group-7/greenhouse-sims/vel15/dynamicCode/platforms/linux64IccDPInt32Opt/lib/libcodeStream_1e20540afa19ebcdaf6320b3ff15d37dc04100f8.so"
Creating new library in "dynamicCode/_1e20540afa19ebcdaf6320b3ff15d37dc04100f8/platforms/linux64IccDPInt32Opt/lib/libcodeStream_1e20540afa19ebcdaf6320b3ff15d37dc04100f8.so"
Invoking "wmake -s libso /work2/08396/ykhatri/stampede2/COE379L-Group-7/greenhouse-sims/vel15/dynamicCode/_1e20540afa19ebcdaf6320b3ff15d37dc04100f8"
wmake libso /work2/08396/ykhatri/stampede2/COE379L-Group-7/greenhouse-sims/vel15/dynamicCode/_1e20540afa19ebcdaf6320b3ff15d37dc04100f8
    ln: ./lnInclude
    wmkdep: codeStreamTemplate.C
    Ctoo: codeStreamTemplate.C
    ld: /work2/08396/ykhatri/stampede2/COE379L-Group-7/greenhouse-sims/vel15/dynamicCode/_1e20540afa19ebcdaf6320b3ff15d37dc04100f8/../platforms/linux64IccDPInt32Opt/lib/libcodeStream_1e20540afa19ebcdaf6320b3ff15d37dc04100f8.so
Using #calcEntry at line 66 in file "/work2/08396/ykhatri/stampede2/COE379L-Group-7/greenhouse-sims/vel15/system/blockMeshDict"
Using #codeStream with "/work2/08396/ykhatri/stampede2/COE379L-Group-7/greenhouse-sims/vel15/dynamicCode/platforms/linux64IccDPInt32Opt/lib/libcodeStream_9adfa63cf90034297bee71dddb03c17c57610d20.so"
Creating new library in "dynamicCode/_9adfa63cf90034297bee71dddb03c17c57610d20/platforms/linux64IccDPInt32Opt/lib/libcodeStream_9adfa63cf90034297bee71dddb03c17c57610d20.so"
Invoking "wmake -s libso /work2/08396/ykhatri/stampede2/COE379L-Group-7/greenhouse-sims/vel15/dynamicCode/_9adfa63cf90034297bee71dddb03c17c57610d20"
wmake libso /work2/08396/ykhatri/stampede2/COE379L-Group-7/greenhouse-sims/vel15/dynamicCode/_9adfa63cf90034297bee71dddb03c17c57610d20
    ln: ./lnInclude
    wmkdep: codeStreamTemplate.C
    Ctoo: codeStreamTemplate.C
    ld: /work2/08396/ykhatri/stampede2/COE379L-Group-7/greenhouse-sims/vel15/dynamicCode/_9adfa63cf90034297bee71dddb03c17c57610d20/../platforms/linux64IccDPInt32Opt/lib/libcodeStream_9adfa63cf90034297bee71dddb03c17c57610d20.so
Using #calcEntry at line 67 in file "/work2/08396/ykhatri/stampede2/COE379L-Group-7/greenhouse-sims/vel15/system/blockMeshDict"
Using #codeStream with "/work2/08396/ykhatri/stampede2/COE379L-Group-7/greenhouse-sims/vel15/dynamicCode/platforms/linux64IccDPInt32Opt/lib/libcodeStream_873063a239e789d9649bed5b76371a568909ac5c.so"
Creating new library in "dynamicCode/_873063a239e789d9649bed5b76371a568909ac5c/platforms/linux64IccDPInt32Opt/lib/libcodeStream_873063a239e789d9649bed5b76371a568909ac5c.so"
Invoking "wmake -s libso /work2/08396/ykhatri/stampede2/COE379L-Group-7/greenhouse-sims/vel15/dynamicCode/_873063a239e789d9649bed5b76371a568909ac5c"
wmake libso /work2/08396/ykhatri/stampede2/COE379L-Group-7/greenhouse-sims/vel15/dynamicCode/_873063a239e789d9649bed5b76371a568909ac5c
    ln: ./lnInclude
    wmkdep: codeStreamTemplate.C
    Ctoo: codeStreamTemplate.C
    ld: /work2/08396/ykhatri/stampede2/COE379L-Group-7/greenhouse-sims/vel15/dynamicCode/_873063a239e789d9649bed5b76371a568909ac5c/../platforms/linux64IccDPInt32Opt/lib/libcodeStream_873063a239e789d9649bed5b76371a568909ac5c.so
Using #calcEntry at line 69 in file "/work2/08396/ykhatri/stampede2/COE379L-Group-7/greenhouse-sims/vel15/system/blockMeshDict"
Using #calcEntry at line 70 in file "/work2/08396/ykhatri/stampede2/COE379L-Group-7/greenhouse-sims/vel15/system/blockMeshDict"
Using #calcEntry at line 71 in file "/work2/08396/ykhatri/stampede2/COE379L-Group-7/greenhouse-sims/vel15/system/blockMeshDict"
Using #codeStream with "/work2/08396/ykhatri/stampede2/COE379L-Group-7/greenhouse-sims/vel15/dynamicCode/platforms/linux64IccDPInt32Opt/lib/libcodeStream_f33edec03f921f4bdd210719125a3596565e4be5.so"
Creating new library in "dynamicCode/_f33edec03f921f4bdd210719125a3596565e4be5/platforms/linux64IccDPInt32Opt/lib/libcodeStream_f33edec03f921f4bdd210719125a3596565e4be5.so"
Invoking "wmake -s libso /work2/08396/ykhatri/stampede2/COE379L-Group-7/greenhouse-sims/vel15/dynamicCode/_f33edec03f921f4bdd210719125a3596565e4be5"
wmake libso /work2/08396/ykhatri/stampede2/COE379L-Group-7/greenhouse-sims/vel15/dynamicCode/_f33edec03f921f4bdd210719125a3596565e4be5
    ln: ./lnInclude
    wmkdep: codeStreamTemplate.C
    Ctoo: codeStreamTemplate.C
    ld: /work2/08396/ykhatri/stampede2/COE379L-Group-7/greenhouse-sims/vel15/dynamicCode/_f33edec03f921f4bdd210719125a3596565e4be5/../platforms/linux64IccDPInt32Opt/lib/libcodeStream_f33edec03f921f4bdd210719125a3596565e4be5.so
Using #calcEntry at line 72 in file "/work2/08396/ykhatri/stampede2/COE379L-Group-7/greenhouse-sims/vel15/system/blockMeshDict"
Using #codeStream with "/work2/08396/ykhatri/stampede2/COE379L-Group-7/greenhouse-sims/vel15/dynamicCode/platforms/linux64IccDPInt32Opt/lib/libcodeStream_1561099c5b1e4f150cdedc3f137f0764fb920bdc.so"
Creating new library in "dynamicCode/_1561099c5b1e4f150cdedc3f137f0764fb920bdc/platforms/linux64IccDPInt32Opt/lib/libcodeStream_1561099c5b1e4f150cdedc3f137f0764fb920bdc.so"
Invoking "wmake -s libso /work2/08396/ykhatri/stampede2/COE379L-Group-7/greenhouse-sims/vel15/dynamicCode/_1561099c5b1e4f150cdedc3f137f0764fb920bdc"
wmake libso /work2/08396/ykhatri/stampede2/COE379L-Group-7/greenhouse-sims/vel15/dynamicCode/_1561099c5b1e4f150cdedc3f137f0764fb920bdc
    ln: ./lnInclude
    wmkdep: codeStreamTemplate.C
    Ctoo: codeStreamTemplate.C
    ld: /work2/08396/ykhatri/stampede2/COE379L-Group-7/greenhouse-sims/vel15/dynamicCode/_1561099c5b1e4f150cdedc3f137f0764fb920bdc/../platforms/linux64IccDPInt32Opt/lib/libcodeStream_1561099c5b1e4f150cdedc3f137f0764fb920bdc.so
Using #calcEntry at line 74 in file "/work2/08396/ykhatri/stampede2/COE379L-Group-7/greenhouse-sims/vel15/system/blockMeshDict"
Using #codeStream with "/work2/08396/ykhatri/stampede2/COE379L-Group-7/greenhouse-sims/vel15/dynamicCode/platforms/linux64IccDPInt32Opt/lib/libcodeStream_2039cd6b60bac1267807b21f445ec17cee638bc4.so"
Creating new library in "dynamicCode/_2039cd6b60bac1267807b21f445ec17cee638bc4/platforms/linux64IccDPInt32Opt/lib/libcodeStream_2039cd6b60bac1267807b21f445ec17cee638bc4.so"
Invoking "wmake -s libso /work2/08396/ykhatri/stampede2/COE379L-Group-7/greenhouse-sims/vel15/dynamicCode/_2039cd6b60bac1267807b21f445ec17cee638bc4"
wmake libso /work2/08396/ykhatri/stampede2/COE379L-Group-7/greenhouse-sims/vel15/dynamicCode/_2039cd6b60bac1267807b21f445ec17cee638bc4
    ln: ./lnInclude
    wmkdep: codeStreamTemplate.C
    Ctoo: codeStreamTemplate.C
    ld: /work2/08396/ykhatri/stampede2/COE379L-Group-7/greenhouse-sims/vel15/dynamicCode/_2039cd6b60bac1267807b21f445ec17cee638bc4/../platforms/linux64IccDPInt32Opt/lib/libcodeStream_2039cd6b60bac1267807b21f445ec17cee638bc4.so
Using #calcEntry at line 75 in file "/work2/08396/ykhatri/stampede2/COE379L-Group-7/greenhouse-sims/vel15/system/blockMeshDict"
Using #codeStream with "/work2/08396/ykhatri/stampede2/COE379L-Group-7/greenhouse-sims/vel15/dynamicCode/platforms/linux64IccDPInt32Opt/lib/libcodeStream_cfc3b12ae2155d5d527801491fdd89649b4d9ac2.so"
Creating new library in "dynamicCode/_cfc3b12ae2155d5d527801491fdd89649b4d9ac2/platforms/linux64IccDPInt32Opt/lib/libcodeStream_cfc3b12ae2155d5d527801491fdd89649b4d9ac2.so"
Invoking "wmake -s libso /work2/08396/ykhatri/stampede2/COE379L-Group-7/greenhouse-sims/vel15/dynamicCode/_cfc3b12ae2155d5d527801491fdd89649b4d9ac2"
wmake libso /work2/08396/ykhatri/stampede2/COE379L-Group-7/greenhouse-sims/vel15/dynamicCode/_cfc3b12ae2155d5d527801491fdd89649b4d9ac2
    ln: ./lnInclude
    wmkdep: codeStreamTemplate.C
    Ctoo: codeStreamTemplate.C
    ld: /work2/08396/ykhatri/stampede2/COE379L-Group-7/greenhouse-sims/vel15/dynamicCode/_cfc3b12ae2155d5d527801491fdd89649b4d9ac2/../platforms/linux64IccDPInt32Opt/lib/libcodeStream_cfc3b12ae2155d5d527801491fdd89649b4d9ac2.so
Using #calcEntry at line 78 in file "/work2/08396/ykhatri/stampede2/COE379L-Group-7/greenhouse-sims/vel15/system/blockMeshDict"
Using #codeStream with "/work2/08396/ykhatri/stampede2/COE379L-Group-7/greenhouse-sims/vel15/dynamicCode/platforms/linux64IccDPInt32Opt/lib/libcodeStream_3735f4a8fb0a46ae86a6619326a46564f7534a09.so"
Creating new library in "dynamicCode/_3735f4a8fb0a46ae86a6619326a46564f7534a09/platforms/linux64IccDPInt32Opt/lib/libcodeStream_3735f4a8fb0a46ae86a6619326a46564f7534a09.so"
Invoking "wmake -s libso /work2/08396/ykhatri/stampede2/COE379L-Group-7/greenhouse-sims/vel15/dynamicCode/_3735f4a8fb0a46ae86a6619326a46564f7534a09"
wmake libso /work2/08396/ykhatri/stampede2/COE379L-Group-7/greenhouse-sims/vel15/dynamicCode/_3735f4a8fb0a46ae86a6619326a46564f7534a09
    ln: ./lnInclude
    wmkdep: codeStreamTemplate.C
    Ctoo: codeStreamTemplate.C
    ld: /work2/08396/ykhatri/stampede2/COE379L-Group-7/greenhouse-sims/vel15/dynamicCode/_3735f4a8fb0a46ae86a6619326a46564f7534a09/../platforms/linux64IccDPInt32Opt/lib/libcodeStream_3735f4a8fb0a46ae86a6619326a46564f7534a09.so
Using #calcEntry at line 81 in file "/work2/08396/ykhatri/stampede2/COE379L-Group-7/greenhouse-sims/vel15/system/blockMeshDict"
Using #codeStream with "/work2/08396/ykhatri/stampede2/COE379L-Group-7/greenhouse-sims/vel15/dynamicCode/platforms/linux64IccDPInt32Opt/lib/libcodeStream_f97e1ae60e952cd8541f77a7e2c8f4e97dc74e63.so"
Creating new library in "dynamicCode/_f97e1ae60e952cd8541f77a7e2c8f4e97dc74e63/platforms/linux64IccDPInt32Opt/lib/libcodeStream_f97e1ae60e952cd8541f77a7e2c8f4e97dc74e63.so"
Invoking "wmake -s libso /work2/08396/ykhatri/stampede2/COE379L-Group-7/greenhouse-sims/vel15/dynamicCode/_f97e1ae60e952cd8541f77a7e2c8f4e97dc74e63"
wmake libso /work2/08396/ykhatri/stampede2/COE379L-Group-7/greenhouse-sims/vel15/dynamicCode/_f97e1ae60e952cd8541f77a7e2c8f4e97dc74e63
    ln: ./lnInclude
    wmkdep: codeStreamTemplate.C
    Ctoo: codeStreamTemplate.C
    ld: /work2/08396/ykhatri/stampede2/COE379L-Group-7/greenhouse-sims/vel15/dynamicCode/_f97e1ae60e952cd8541f77a7e2c8f4e97dc74e63/../platforms/linux64IccDPInt32Opt/lib/libcodeStream_f97e1ae60e952cd8541f77a7e2c8f4e97dc74e63.so
Using #calcEntry at line 82 in file "/work2/08396/ykhatri/stampede2/COE379L-Group-7/greenhouse-sims/vel15/system/blockMeshDict"
Using #codeStream with "/work2/08396/ykhatri/stampede2/COE379L-Group-7/greenhouse-sims/vel15/dynamicCode/platforms/linux64IccDPInt32Opt/lib/libcodeStream_dbc919be49fcd2302f8665efc7321e0d4e1ee2f6.so"
Creating new library in "dynamicCode/_dbc919be49fcd2302f8665efc7321e0d4e1ee2f6/platforms/linux64IccDPInt32Opt/lib/libcodeStream_dbc919be49fcd2302f8665efc7321e0d4e1ee2f6.so"
Invoking "wmake -s libso /work2/08396/ykhatri/stampede2/COE379L-Group-7/greenhouse-sims/vel15/dynamicCode/_dbc919be49fcd2302f8665efc7321e0d4e1ee2f6"
wmake libso /work2/08396/ykhatri/stampede2/COE379L-Group-7/greenhouse-sims/vel15/dynamicCode/_dbc919be49fcd2302f8665efc7321e0d4e1ee2f6
    ln: ./lnInclude
    wmkdep: codeStreamTemplate.C
    Ctoo: codeStreamTemplate.C
    ld: /work2/08396/ykhatri/stampede2/COE379L-Group-7/greenhouse-sims/vel15/dynamicCode/_dbc919be49fcd2302f8665efc7321e0d4e1ee2f6/../platforms/linux64IccDPInt32Opt/lib/libcodeStream_dbc919be49fcd2302f8665efc7321e0d4e1ee2f6.so
Using #calcEntry at line 85 in file "/work2/08396/ykhatri/stampede2/COE379L-Group-7/greenhouse-sims/vel15/system/blockMeshDict"
Using #codeStream with "/work2/08396/ykhatri/stampede2/COE379L-Group-7/greenhouse-sims/vel15/dynamicCode/platforms/linux64IccDPInt32Opt/lib/libcodeStream_d810854e14c7388e15bc592f67ec5b0ee2f20031.so"
Creating new library in "dynamicCode/_d810854e14c7388e15bc592f67ec5b0ee2f20031/platforms/linux64IccDPInt32Opt/lib/libcodeStream_d810854e14c7388e15bc592f67ec5b0ee2f20031.so"
Invoking "wmake -s libso /work2/08396/ykhatri/stampede2/COE379L-Group-7/greenhouse-sims/vel15/dynamicCode/_d810854e14c7388e15bc592f67ec5b0ee2f20031"
wmake libso /work2/08396/ykhatri/stampede2/COE379L-Group-7/greenhouse-sims/vel15/dynamicCode/_d810854e14c7388e15bc592f67ec5b0ee2f20031
    ln: ./lnInclude
    wmkdep: codeStreamTemplate.C
    Ctoo: codeStreamTemplate.C
    ld: /work2/08396/ykhatri/stampede2/COE379L-Group-7/greenhouse-sims/vel15/dynamicCode/_d810854e14c7388e15bc592f67ec5b0ee2f20031/../platforms/linux64IccDPInt32Opt/lib/libcodeStream_d810854e14c7388e15bc592f67ec5b0ee2f20031.so
Using #calcEntry at line 86 in file "/work2/08396/ykhatri/stampede2/COE379L-Group-7/greenhouse-sims/vel15/system/blockMeshDict"
Using #calcEntry at line 89 in file "/work2/08396/ykhatri/stampede2/COE379L-Group-7/greenhouse-sims/vel15/system/blockMeshDict"
Using #codeStream with "/work2/08396/ykhatri/stampede2/COE379L-Group-7/greenhouse-sims/vel15/dynamicCode/platforms/linux64IccDPInt32Opt/lib/libcodeStream_6f670fa322f9ee8666cb27b8a757ee5f54ce8e69.so"
Creating new library in "dynamicCode/_6f670fa322f9ee8666cb27b8a757ee5f54ce8e69/platforms/linux64IccDPInt32Opt/lib/libcodeStream_6f670fa322f9ee8666cb27b8a757ee5f54ce8e69.so"
Invoking "wmake -s libso /work2/08396/ykhatri/stampede2/COE379L-Group-7/greenhouse-sims/vel15/dynamicCode/_6f670fa322f9ee8666cb27b8a757ee5f54ce8e69"
wmake libso /work2/08396/ykhatri/stampede2/COE379L-Group-7/greenhouse-sims/vel15/dynamicCode/_6f670fa322f9ee8666cb27b8a757ee5f54ce8e69
    ln: ./lnInclude
    wmkdep: codeStreamTemplate.C
    Ctoo: codeStreamTemplate.C
    ld: /work2/08396/ykhatri/stampede2/COE379L-Group-7/greenhouse-sims/vel15/dynamicCode/_6f670fa322f9ee8666cb27b8a757ee5f54ce8e69/../platforms/linux64IccDPInt32Opt/lib/libcodeStream_6f670fa322f9ee8666cb27b8a757ee5f54ce8e69.so
Using #calcEntry at line 90 in file "/work2/08396/ykhatri/stampede2/COE379L-Group-7/greenhouse-sims/vel15/system/blockMeshDict"
Using #codeStream with "/work2/08396/ykhatri/stampede2/COE379L-Group-7/greenhouse-sims/vel15/dynamicCode/platforms/linux64IccDPInt32Opt/lib/libcodeStream_07287e32716bcbe5b3d0337d499734c401638c5e.so"
Creating new library in "dynamicCode/_07287e32716bcbe5b3d0337d499734c401638c5e/platforms/linux64IccDPInt32Opt/lib/libcodeStream_07287e32716bcbe5b3d0337d499734c401638c5e.so"
Invoking "wmake -s libso /work2/08396/ykhatri/stampede2/COE379L-Group-7/greenhouse-sims/vel15/dynamicCode/_07287e32716bcbe5b3d0337d499734c401638c5e"
wmake libso /work2/08396/ykhatri/stampede2/COE379L-Group-7/greenhouse-sims/vel15/dynamicCode/_07287e32716bcbe5b3d0337d499734c401638c5e
    ln: ./lnInclude
    wmkdep: codeStreamTemplate.C
    Ctoo: codeStreamTemplate.C
    ld: /work2/08396/ykhatri/stampede2/COE379L-Group-7/greenhouse-sims/vel15/dynamicCode/_07287e32716bcbe5b3d0337d499734c401638c5e/../platforms/linux64IccDPInt32Opt/lib/libcodeStream_07287e32716bcbe5b3d0337d499734c401638c5e.so
Using #calcEntry at line 91 in file "/work2/08396/ykhatri/stampede2/COE379L-Group-7/greenhouse-sims/vel15/system/blockMeshDict"
Using #calcEntry at line 92 in file "/work2/08396/ykhatri/stampede2/COE379L-Group-7/greenhouse-sims/vel15/system/blockMeshDict"
Using #calcEntry at line 94 in file "/work2/08396/ykhatri/stampede2/COE379L-Group-7/greenhouse-sims/vel15/system/blockMeshDict"
Using #calcEntry at line 95 in file "/work2/08396/ykhatri/stampede2/COE379L-Group-7/greenhouse-sims/vel15/system/blockMeshDict"
Using #calcEntry at line 96 in file "/work2/08396/ykhatri/stampede2/COE379L-Group-7/greenhouse-sims/vel15/system/blockMeshDict"
Using #calcEntry at line 97 in file "/work2/08396/ykhatri/stampede2/COE379L-Group-7/greenhouse-sims/vel15/system/blockMeshDict"
Using #calcEntry at line 102 in file "/work2/08396/ykhatri/stampede2/COE379L-Group-7/greenhouse-sims/vel15/system/blockMeshDict"
Using #codeStream with "/work2/08396/ykhatri/stampede2/COE379L-Group-7/greenhouse-sims/vel15/dynamicCode/platforms/linux64IccDPInt32Opt/lib/libcodeStream_7217b07ec68280f1281fab33461737aaaf86ac0f.so"
Creating new library in "dynamicCode/_7217b07ec68280f1281fab33461737aaaf86ac0f/platforms/linux64IccDPInt32Opt/lib/libcodeStream_7217b07ec68280f1281fab33461737aaaf86ac0f.so"
Invoking "wmake -s libso /work2/08396/ykhatri/stampede2/COE379L-Group-7/greenhouse-sims/vel15/dynamicCode/_7217b07ec68280f1281fab33461737aaaf86ac0f"
wmake libso /work2/08396/ykhatri/stampede2/COE379L-Group-7/greenhouse-sims/vel15/dynamicCode/_7217b07ec68280f1281fab33461737aaaf86ac0f
    ln: ./lnInclude
    wmkdep: codeStreamTemplate.C
    Ctoo: codeStreamTemplate.C
    ld: /work2/08396/ykhatri/stampede2/COE379L-Group-7/greenhouse-sims/vel15/dynamicCode/_7217b07ec68280f1281fab33461737aaaf86ac0f/../platforms/linux64IccDPInt32Opt/lib/libcodeStream_7217b07ec68280f1281fab33461737aaaf86ac0f.so
Using #calcEntry at line 103 in file "/work2/08396/ykhatri/stampede2/COE379L-Group-7/greenhouse-sims/vel15/system/blockMeshDict"
Using #codeStream with "/work2/08396/ykhatri/stampede2/COE379L-Group-7/greenhouse-sims/vel15/dynamicCode/platforms/linux64IccDPInt32Opt/lib/libcodeStream_284cee273fa2efaa3e84622ad9c8af156ba01785.so"
Creating new library in "dynamicCode/_284cee273fa2efaa3e84622ad9c8af156ba01785/platforms/linux64IccDPInt32Opt/lib/libcodeStream_284cee273fa2efaa3e84622ad9c8af156ba01785.so"
Invoking "wmake -s libso /work2/08396/ykhatri/stampede2/COE379L-Group-7/greenhouse-sims/vel15/dynamicCode/_284cee273fa2efaa3e84622ad9c8af156ba01785"
wmake libso /work2/08396/ykhatri/stampede2/COE379L-Group-7/greenhouse-sims/vel15/dynamicCode/_284cee273fa2efaa3e84622ad9c8af156ba01785
    ln: ./lnInclude
    wmkdep: codeStreamTemplate.C
    Ctoo: codeStreamTemplate.C
    ld: /work2/08396/ykhatri/stampede2/COE379L-Group-7/greenhouse-sims/vel15/dynamicCode/_284cee273fa2efaa3e84622ad9c8af156ba01785/../platforms/linux64IccDPInt32Opt/lib/libcodeStream_284cee273fa2efaa3e84622ad9c8af156ba01785.so
Using #calcEntry at line 104 in file "/work2/08396/ykhatri/stampede2/COE379L-Group-7/greenhouse-sims/vel15/system/blockMeshDict"
Using #codeStream with "/work2/08396/ykhatri/stampede2/COE379L-Group-7/greenhouse-sims/vel15/dynamicCode/platforms/linux64IccDPInt32Opt/lib/libcodeStream_15c370edfd403dce84e34aea6494698923a29fa4.so"
Creating new library in "dynamicCode/_15c370edfd403dce84e34aea6494698923a29fa4/platforms/linux64IccDPInt32Opt/lib/libcodeStream_15c370edfd403dce84e34aea6494698923a29fa4.so"
Invoking "wmake -s libso /work2/08396/ykhatri/stampede2/COE379L-Group-7/greenhouse-sims/vel15/dynamicCode/_15c370edfd403dce84e34aea6494698923a29fa4"
wmake libso /work2/08396/ykhatri/stampede2/COE379L-Group-7/greenhouse-sims/vel15/dynamicCode/_15c370edfd403dce84e34aea6494698923a29fa4
    ln: ./lnInclude
    wmkdep: codeStreamTemplate.C
    Ctoo: codeStreamTemplate.C
    ld: /work2/08396/ykhatri/stampede2/COE379L-Group-7/greenhouse-sims/vel15/dynamicCode/_15c370edfd403dce84e34aea6494698923a29fa4/../platforms/linux64IccDPInt32Opt/lib/libcodeStream_15c370edfd403dce84e34aea6494698923a29fa4.so
Using #calcEntry at line 105 in file "/work2/08396/ykhatri/stampede2/COE379L-Group-7/greenhouse-sims/vel15/system/blockMeshDict"
Using #codeStream with "/work2/08396/ykhatri/stampede2/COE379L-Group-7/greenhouse-sims/vel15/dynamicCode/platforms/linux64IccDPInt32Opt/lib/libcodeStream_5240f77e0ef180a2b61ac67bf028bc7c7a6c5e57.so"
Creating new library in "dynamicCode/_5240f77e0ef180a2b61ac67bf028bc7c7a6c5e57/platforms/linux64IccDPInt32Opt/lib/libcodeStream_5240f77e0ef180a2b61ac67bf028bc7c7a6c5e57.so"
Invoking "wmake -s libso /work2/08396/ykhatri/stampede2/COE379L-Group-7/greenhouse-sims/vel15/dynamicCode/_5240f77e0ef180a2b61ac67bf028bc7c7a6c5e57"
wmake libso /work2/08396/ykhatri/stampede2/COE379L-Group-7/greenhouse-sims/vel15/dynamicCode/_5240f77e0ef180a2b61ac67bf028bc7c7a6c5e57
    ln: ./lnInclude
    wmkdep: codeStreamTemplate.C
    Ctoo: codeStreamTemplate.C
    ld: /work2/08396/ykhatri/stampede2/COE379L-Group-7/greenhouse-sims/vel15/dynamicCode/_5240f77e0ef180a2b61ac67bf028bc7c7a6c5e57/../platforms/linux64IccDPInt32Opt/lib/libcodeStream_5240f77e0ef180a2b61ac67bf028bc7c7a6c5e57.so
Using #calcEntry at line 107 in file "/work2/08396/ykhatri/stampede2/COE379L-Group-7/greenhouse-sims/vel15/system/blockMeshDict"
Using #codeStream with "/work2/08396/ykhatri/stampede2/COE379L-Group-7/greenhouse-sims/vel15/dynamicCode/platforms/linux64IccDPInt32Opt/lib/libcodeStream_ca17359596272b7e8f2535d4d564005a7402d3f4.so"
Creating new library in "dynamicCode/_ca17359596272b7e8f2535d4d564005a7402d3f4/platforms/linux64IccDPInt32Opt/lib/libcodeStream_ca17359596272b7e8f2535d4d564005a7402d3f4.so"
Invoking "wmake -s libso /work2/08396/ykhatri/stampede2/COE379L-Group-7/greenhouse-sims/vel15/dynamicCode/_ca17359596272b7e8f2535d4d564005a7402d3f4"
wmake libso /work2/08396/ykhatri/stampede2/COE379L-Group-7/greenhouse-sims/vel15/dynamicCode/_ca17359596272b7e8f2535d4d564005a7402d3f4
    ln: ./lnInclude
    wmkdep: codeStreamTemplate.C
    Ctoo: codeStreamTemplate.C
    ld: /work2/08396/ykhatri/stampede2/COE379L-Group-7/greenhouse-sims/vel15/dynamicCode/_ca17359596272b7e8f2535d4d564005a7402d3f4/../platforms/linux64IccDPInt32Opt/lib/libcodeStream_ca17359596272b7e8f2535d4d564005a7402d3f4.so
Using #calcEntry at line 108 in file "/work2/08396/ykhatri/stampede2/COE379L-Group-7/greenhouse-sims/vel15/system/blockMeshDict"
Using #codeStream with "/work2/08396/ykhatri/stampede2/COE379L-Group-7/greenhouse-sims/vel15/dynamicCode/platforms/linux64IccDPInt32Opt/lib/libcodeStream_baa5ea811e527259ccc1208d57d9eff7c1dfeaf6.so"
Creating new library in "dynamicCode/_baa5ea811e527259ccc1208d57d9eff7c1dfeaf6/platforms/linux64IccDPInt32Opt/lib/libcodeStream_baa5ea811e527259ccc1208d57d9eff7c1dfeaf6.so"
Invoking "wmake -s libso /work2/08396/ykhatri/stampede2/COE379L-Group-7/greenhouse-sims/vel15/dynamicCode/_baa5ea811e527259ccc1208d57d9eff7c1dfeaf6"
wmake libso /work2/08396/ykhatri/stampede2/COE379L-Group-7/greenhouse-sims/vel15/dynamicCode/_baa5ea811e527259ccc1208d57d9eff7c1dfeaf6
    ln: ./lnInclude
    wmkdep: codeStreamTemplate.C
    Ctoo: codeStreamTemplate.C
    ld: /work2/08396/ykhatri/stampede2/COE379L-Group-7/greenhouse-sims/vel15/dynamicCode/_baa5ea811e527259ccc1208d57d9eff7c1dfeaf6/../platforms/linux64IccDPInt32Opt/lib/libcodeStream_baa5ea811e527259ccc1208d57d9eff7c1dfeaf6.so
Using #calcEntry at line 110 in file "/work2/08396/ykhatri/stampede2/COE379L-Group-7/greenhouse-sims/vel15/system/blockMeshDict"
Using #codeStream with "/work2/08396/ykhatri/stampede2/COE379L-Group-7/greenhouse-sims/vel15/dynamicCode/platforms/linux64IccDPInt32Opt/lib/libcodeStream_b7973e3a5ff3d5c047059b39d5b6ddd7deac2cc3.so"
Creating new library in "dynamicCode/_b7973e3a5ff3d5c047059b39d5b6ddd7deac2cc3/platforms/linux64IccDPInt32Opt/lib/libcodeStream_b7973e3a5ff3d5c047059b39d5b6ddd7deac2cc3.so"
Invoking "wmake -s libso /work2/08396/ykhatri/stampede2/COE379L-Group-7/greenhouse-sims/vel15/dynamicCode/_b7973e3a5ff3d5c047059b39d5b6ddd7deac2cc3"
wmake libso /work2/08396/ykhatri/stampede2/COE379L-Group-7/greenhouse-sims/vel15/dynamicCode/_b7973e3a5ff3d5c047059b39d5b6ddd7deac2cc3
    ln: ./lnInclude
    wmkdep: codeStreamTemplate.C
    Ctoo: codeStreamTemplate.C
    ld: /work2/08396/ykhatri/stampede2/COE379L-Group-7/greenhouse-sims/vel15/dynamicCode/_b7973e3a5ff3d5c047059b39d5b6ddd7deac2cc3/../platforms/linux64IccDPInt32Opt/lib/libcodeStream_b7973e3a5ff3d5c047059b39d5b6ddd7deac2cc3.so
Using #calcEntry at line 111 in file "/work2/08396/ykhatri/stampede2/COE379L-Group-7/greenhouse-sims/vel15/system/blockMeshDict"
Using #codeStream with "/work2/08396/ykhatri/stampede2/COE379L-Group-7/greenhouse-sims/vel15/dynamicCode/platforms/linux64IccDPInt32Opt/lib/libcodeStream_c477668255d2c3071cf52104d9f617683c39f696.so"
Creating new library in "dynamicCode/_c477668255d2c3071cf52104d9f617683c39f696/platforms/linux64IccDPInt32Opt/lib/libcodeStream_c477668255d2c3071cf52104d9f617683c39f696.so"
Invoking "wmake -s libso /work2/08396/ykhatri/stampede2/COE379L-Group-7/greenhouse-sims/vel15/dynamicCode/_c477668255d2c3071cf52104d9f617683c39f696"
wmake libso /work2/08396/ykhatri/stampede2/COE379L-Group-7/greenhouse-sims/vel15/dynamicCode/_c477668255d2c3071cf52104d9f617683c39f696
    ln: ./lnInclude
    wmkdep: codeStreamTemplate.C
    Ctoo: codeStreamTemplate.C
    ld: /work2/08396/ykhatri/stampede2/COE379L-Group-7/greenhouse-sims/vel15/dynamicCode/_c477668255d2c3071cf52104d9f617683c39f696/../platforms/linux64IccDPInt32Opt/lib/libcodeStream_c477668255d2c3071cf52104d9f617683c39f696.so
Using #calcEntry at line 112 in file "/work2/08396/ykhatri/stampede2/COE379L-Group-7/greenhouse-sims/vel15/system/blockMeshDict"
Using #codeStream with "/work2/08396/ykhatri/stampede2/COE379L-Group-7/greenhouse-sims/vel15/dynamicCode/platforms/linux64IccDPInt32Opt/lib/libcodeStream_995d6b50610419c2fcf9cab946ff316bf2d9ef43.so"
Creating new library in "dynamicCode/_995d6b50610419c2fcf9cab946ff316bf2d9ef43/platforms/linux64IccDPInt32Opt/lib/libcodeStream_995d6b50610419c2fcf9cab946ff316bf2d9ef43.so"
Invoking "wmake -s libso /work2/08396/ykhatri/stampede2/COE379L-Group-7/greenhouse-sims/vel15/dynamicCode/_995d6b50610419c2fcf9cab946ff316bf2d9ef43"
wmake libso /work2/08396/ykhatri/stampede2/COE379L-Group-7/greenhouse-sims/vel15/dynamicCode/_995d6b50610419c2fcf9cab946ff316bf2d9ef43
    ln: ./lnInclude
    wmkdep: codeStreamTemplate.C
    Ctoo: codeStreamTemplate.C
    ld: /work2/08396/ykhatri/stampede2/COE379L-Group-7/greenhouse-sims/vel15/dynamicCode/_995d6b50610419c2fcf9cab946ff316bf2d9ef43/../platforms/linux64IccDPInt32Opt/lib/libcodeStream_995d6b50610419c2fcf9cab946ff316bf2d9ef43.so
Using #calcEntry at line 113 in file "/work2/08396/ykhatri/stampede2/COE379L-Group-7/greenhouse-sims/vel15/system/blockMeshDict"
Using #codeStream with "/work2/08396/ykhatri/stampede2/COE379L-Group-7/greenhouse-sims/vel15/dynamicCode/platforms/linux64IccDPInt32Opt/lib/libcodeStream_ba0b057dee43e5d38cbc281b0b677586094b632f.so"
Creating new library in "dynamicCode/_ba0b057dee43e5d38cbc281b0b677586094b632f/platforms/linux64IccDPInt32Opt/lib/libcodeStream_ba0b057dee43e5d38cbc281b0b677586094b632f.so"
Invoking "wmake -s libso /work2/08396/ykhatri/stampede2/COE379L-Group-7/greenhouse-sims/vel15/dynamicCode/_ba0b057dee43e5d38cbc281b0b677586094b632f"
wmake libso /work2/08396/ykhatri/stampede2/COE379L-Group-7/greenhouse-sims/vel15/dynamicCode/_ba0b057dee43e5d38cbc281b0b677586094b632f
    ln: ./lnInclude
    wmkdep: codeStreamTemplate.C
    Ctoo: codeStreamTemplate.C
    ld: /work2/08396/ykhatri/stampede2/COE379L-Group-7/greenhouse-sims/vel15/dynamicCode/_ba0b057dee43e5d38cbc281b0b677586094b632f/../platforms/linux64IccDPInt32Opt/lib/libcodeStream_ba0b057dee43e5d38cbc281b0b677586094b632f.so
Using #calcEntry at line 115 in file "/work2/08396/ykhatri/stampede2/COE379L-Group-7/greenhouse-sims/vel15/system/blockMeshDict"
Using #codeStream with "/work2/08396/ykhatri/stampede2/COE379L-Group-7/greenhouse-sims/vel15/dynamicCode/platforms/linux64IccDPInt32Opt/lib/libcodeStream_6ceb85ca9c40a9fd75b70afbc252da21b8e1f63d.so"
Creating new library in "dynamicCode/_6ceb85ca9c40a9fd75b70afbc252da21b8e1f63d/platforms/linux64IccDPInt32Opt/lib/libcodeStream_6ceb85ca9c40a9fd75b70afbc252da21b8e1f63d.so"
Invoking "wmake -s libso /work2/08396/ykhatri/stampede2/COE379L-Group-7/greenhouse-sims/vel15/dynamicCode/_6ceb85ca9c40a9fd75b70afbc252da21b8e1f63d"
wmake libso /work2/08396/ykhatri/stampede2/COE379L-Group-7/greenhouse-sims/vel15/dynamicCode/_6ceb85ca9c40a9fd75b70afbc252da21b8e1f63d
    ln: ./lnInclude
    wmkdep: codeStreamTemplate.C
    Ctoo: codeStreamTemplate.C
    ld: /work2/08396/ykhatri/stampede2/COE379L-Group-7/greenhouse-sims/vel15/dynamicCode/_6ceb85ca9c40a9fd75b70afbc252da21b8e1f63d/../platforms/linux64IccDPInt32Opt/lib/libcodeStream_6ceb85ca9c40a9fd75b70afbc252da21b8e1f63d.so
Using #calcEntry at line 116 in file "/work2/08396/ykhatri/stampede2/COE379L-Group-7/greenhouse-sims/vel15/system/blockMeshDict"
Using #codeStream with "/work2/08396/ykhatri/stampede2/COE379L-Group-7/greenhouse-sims/vel15/dynamicCode/platforms/linux64IccDPInt32Opt/lib/libcodeStream_ad9c339575926baa718696f594b0afa86f3f6513.so"
Creating new library in "dynamicCode/_ad9c339575926baa718696f594b0afa86f3f6513/platforms/linux64IccDPInt32Opt/lib/libcodeStream_ad9c339575926baa718696f594b0afa86f3f6513.so"
Invoking "wmake -s libso /work2/08396/ykhatri/stampede2/COE379L-Group-7/greenhouse-sims/vel15/dynamicCode/_ad9c339575926baa718696f594b0afa86f3f6513"
wmake libso /work2/08396/ykhatri/stampede2/COE379L-Group-7/greenhouse-sims/vel15/dynamicCode/_ad9c339575926baa718696f594b0afa86f3f6513
    ln: ./lnInclude
    wmkdep: codeStreamTemplate.C
    Ctoo: codeStreamTemplate.C
    ld: /work2/08396/ykhatri/stampede2/COE379L-Group-7/greenhouse-sims/vel15/dynamicCode/_ad9c339575926baa718696f594b0afa86f3f6513/../platforms/linux64IccDPInt32Opt/lib/libcodeStream_ad9c339575926baa718696f594b0afa86f3f6513.so
Using #calcEntry at line 119 in file "/work2/08396/ykhatri/stampede2/COE379L-Group-7/greenhouse-sims/vel15/system/blockMeshDict"
Using #codeStream with "/work2/08396/ykhatri/stampede2/COE379L-Group-7/greenhouse-sims/vel15/dynamicCode/platforms/linux64IccDPInt32Opt/lib/libcodeStream_31d84d36b61b44bdd1ebec590f0b77ac67eaab42.so"
Creating new library in "dynamicCode/_31d84d36b61b44bdd1ebec590f0b77ac67eaab42/platforms/linux64IccDPInt32Opt/lib/libcodeStream_31d84d36b61b44bdd1ebec590f0b77ac67eaab42.so"
Invoking "wmake -s libso /work2/08396/ykhatri/stampede2/COE379L-Group-7/greenhouse-sims/vel15/dynamicCode/_31d84d36b61b44bdd1ebec590f0b77ac67eaab42"
wmake libso /work2/08396/ykhatri/stampede2/COE379L-Group-7/greenhouse-sims/vel15/dynamicCode/_31d84d36b61b44bdd1ebec590f0b77ac67eaab42
    ln: ./lnInclude
    wmkdep: codeStreamTemplate.C
    Ctoo: codeStreamTemplate.C
    ld: /work2/08396/ykhatri/stampede2/COE379L-Group-7/greenhouse-sims/vel15/dynamicCode/_31d84d36b61b44bdd1ebec590f0b77ac67eaab42/../platforms/linux64IccDPInt32Opt/lib/libcodeStream_31d84d36b61b44bdd1ebec590f0b77ac67eaab42.so
Using #calcEntry at line 120 in file "/work2/08396/ykhatri/stampede2/COE379L-Group-7/greenhouse-sims/vel15/system/blockMeshDict"
Using #codeStream with "/work2/08396/ykhatri/stampede2/COE379L-Group-7/greenhouse-sims/vel15/dynamicCode/platforms/linux64IccDPInt32Opt/lib/libcodeStream_2d9f47aeec278fb1824d92bde2d661d47196b05c.so"
Creating new library in "dynamicCode/_2d9f47aeec278fb1824d92bde2d661d47196b05c/platforms/linux64IccDPInt32Opt/lib/libcodeStream_2d9f47aeec278fb1824d92bde2d661d47196b05c.so"
Invoking "wmake -s libso /work2/08396/ykhatri/stampede2/COE379L-Group-7/greenhouse-sims/vel15/dynamicCode/_2d9f47aeec278fb1824d92bde2d661d47196b05c"
wmake libso /work2/08396/ykhatri/stampede2/COE379L-Group-7/greenhouse-sims/vel15/dynamicCode/_2d9f47aeec278fb1824d92bde2d661d47196b05c
    ln: ./lnInclude
    wmkdep: codeStreamTemplate.C
    Ctoo: codeStreamTemplate.C
    ld: /work2/08396/ykhatri/stampede2/COE379L-Group-7/greenhouse-sims/vel15/dynamicCode/_2d9f47aeec278fb1824d92bde2d661d47196b05c/../platforms/linux64IccDPInt32Opt/lib/libcodeStream_2d9f47aeec278fb1824d92bde2d661d47196b05c.so
Using #calcEntry at line 121 in file "/work2/08396/ykhatri/stampede2/COE379L-Group-7/greenhouse-sims/vel15/system/blockMeshDict"
Using #codeStream with "/work2/08396/ykhatri/stampede2/COE379L-Group-7/greenhouse-sims/vel15/dynamicCode/platforms/linux64IccDPInt32Opt/lib/libcodeStream_8be8a2b134e9a6adbbc57c75a2d0533f57aa5d47.so"
Creating new library in "dynamicCode/_8be8a2b134e9a6adbbc57c75a2d0533f57aa5d47/platforms/linux64IccDPInt32Opt/lib/libcodeStream_8be8a2b134e9a6adbbc57c75a2d0533f57aa5d47.so"
Invoking "wmake -s libso /work2/08396/ykhatri/stampede2/COE379L-Group-7/greenhouse-sims/vel15/dynamicCode/_8be8a2b134e9a6adbbc57c75a2d0533f57aa5d47"
wmake libso /work2/08396/ykhatri/stampede2/COE379L-Group-7/greenhouse-sims/vel15/dynamicCode/_8be8a2b134e9a6adbbc57c75a2d0533f57aa5d47
    ln: ./lnInclude
    wmkdep: codeStreamTemplate.C
    Ctoo: codeStreamTemplate.C
    ld: /work2/08396/ykhatri/stampede2/COE379L-Group-7/greenhouse-sims/vel15/dynamicCode/_8be8a2b134e9a6adbbc57c75a2d0533f57aa5d47/../platforms/linux64IccDPInt32Opt/lib/libcodeStream_8be8a2b134e9a6adbbc57c75a2d0533f57aa5d47.so
Using #calcEntry at line 122 in file "/work2/08396/ykhatri/stampede2/COE379L-Group-7/greenhouse-sims/vel15/system/blockMeshDict"
Using #codeStream with "/work2/08396/ykhatri/stampede2/COE379L-Group-7/greenhouse-sims/vel15/dynamicCode/platforms/linux64IccDPInt32Opt/lib/libcodeStream_1dbeb24a986a51e0849f40f4bfbdf9d5d5c1d3cb.so"
Creating new library in "dynamicCode/_1dbeb24a986a51e0849f40f4bfbdf9d5d5c1d3cb/platforms/linux64IccDPInt32Opt/lib/libcodeStream_1dbeb24a986a51e0849f40f4bfbdf9d5d5c1d3cb.so"
Invoking "wmake -s libso /work2/08396/ykhatri/stampede2/COE379L-Group-7/greenhouse-sims/vel15/dynamicCode/_1dbeb24a986a51e0849f40f4bfbdf9d5d5c1d3cb"
wmake libso /work2/08396/ykhatri/stampede2/COE379L-Group-7/greenhouse-sims/vel15/dynamicCode/_1dbeb24a986a51e0849f40f4bfbdf9d5d5c1d3cb
    ln: ./lnInclude
    wmkdep: codeStreamTemplate.C
    Ctoo: codeStreamTemplate.C
    ld: /work2/08396/ykhatri/stampede2/COE379L-Group-7/greenhouse-sims/vel15/dynamicCode/_1dbeb24a986a51e0849f40f4bfbdf9d5d5c1d3cb/../platforms/linux64IccDPInt32Opt/lib/libcodeStream_1dbeb24a986a51e0849f40f4bfbdf9d5d5c1d3cb.so
Using #calcEntry at line 124 in file "/work2/08396/ykhatri/stampede2/COE379L-Group-7/greenhouse-sims/vel15/system/blockMeshDict"
Using #codeStream with "/work2/08396/ykhatri/stampede2/COE379L-Group-7/greenhouse-sims/vel15/dynamicCode/platforms/linux64IccDPInt32Opt/lib/libcodeStream_cb5b7f3b152af9c72dd3e2ef5456023e8db3d5ad.so"
Creating new library in "dynamicCode/_cb5b7f3b152af9c72dd3e2ef5456023e8db3d5ad/platforms/linux64IccDPInt32Opt/lib/libcodeStream_cb5b7f3b152af9c72dd3e2ef5456023e8db3d5ad.so"
Invoking "wmake -s libso /work2/08396/ykhatri/stampede2/COE379L-Group-7/greenhouse-sims/vel15/dynamicCode/_cb5b7f3b152af9c72dd3e2ef5456023e8db3d5ad"
wmake libso /work2/08396/ykhatri/stampede2/COE379L-Group-7/greenhouse-sims/vel15/dynamicCode/_cb5b7f3b152af9c72dd3e2ef5456023e8db3d5ad
    ln: ./lnInclude
    wmkdep: codeStreamTemplate.C
    Ctoo: codeStreamTemplate.C
    ld: /work2/08396/ykhatri/stampede2/COE379L-Group-7/greenhouse-sims/vel15/dynamicCode/_cb5b7f3b152af9c72dd3e2ef5456023e8db3d5ad/../platforms/linux64IccDPInt32Opt/lib/libcodeStream_cb5b7f3b152af9c72dd3e2ef5456023e8db3d5ad.so
Using #calcEntry at line 125 in file "/work2/08396/ykhatri/stampede2/COE379L-Group-7/greenhouse-sims/vel15/system/blockMeshDict"
Using #codeStream with "/work2/08396/ykhatri/stampede2/COE379L-Group-7/greenhouse-sims/vel15/dynamicCode/platforms/linux64IccDPInt32Opt/lib/libcodeStream_e971e5bf7ce6c6a3b1b9fd6bb3e55e11f30cb3b5.so"
Creating new library in "dynamicCode/_e971e5bf7ce6c6a3b1b9fd6bb3e55e11f30cb3b5/platforms/linux64IccDPInt32Opt/lib/libcodeStream_e971e5bf7ce6c6a3b1b9fd6bb3e55e11f30cb3b5.so"
Invoking "wmake -s libso /work2/08396/ykhatri/stampede2/COE379L-Group-7/greenhouse-sims/vel15/dynamicCode/_e971e5bf7ce6c6a3b1b9fd6bb3e55e11f30cb3b5"
wmake libso /work2/08396/ykhatri/stampede2/COE379L-Group-7/greenhouse-sims/vel15/dynamicCode/_e971e5bf7ce6c6a3b1b9fd6bb3e55e11f30cb3b5
    ln: ./lnInclude
    wmkdep: codeStreamTemplate.C
    Ctoo: codeStreamTemplate.C
    ld: /work2/08396/ykhatri/stampede2/COE379L-Group-7/greenhouse-sims/vel15/dynamicCode/_e971e5bf7ce6c6a3b1b9fd6bb3e55e11f30cb3b5/../platforms/linux64IccDPInt32Opt/lib/libcodeStream_e971e5bf7ce6c6a3b1b9fd6bb3e55e11f30cb3b5.so
Using #calcEntry at line 127 in file "/work2/08396/ykhatri/stampede2/COE379L-Group-7/greenhouse-sims/vel15/system/blockMeshDict"
Using #codeStream with "/work2/08396/ykhatri/stampede2/COE379L-Group-7/greenhouse-sims/vel15/dynamicCode/platforms/linux64IccDPInt32Opt/lib/libcodeStream_a45a9ee607a1521e5a18540e56e569a7885b8d2e.so"
Creating new library in "dynamicCode/_a45a9ee607a1521e5a18540e56e569a7885b8d2e/platforms/linux64IccDPInt32Opt/lib/libcodeStream_a45a9ee607a1521e5a18540e56e569a7885b8d2e.so"
Invoking "wmake -s libso /work2/08396/ykhatri/stampede2/COE379L-Group-7/greenhouse-sims/vel15/dynamicCode/_a45a9ee607a1521e5a18540e56e569a7885b8d2e"
wmake libso /work2/08396/ykhatri/stampede2/COE379L-Group-7/greenhouse-sims/vel15/dynamicCode/_a45a9ee607a1521e5a18540e56e569a7885b8d2e
    ln: ./lnInclude
    wmkdep: codeStreamTemplate.C
    Ctoo: codeStreamTemplate.C
    ld: /work2/08396/ykhatri/stampede2/COE379L-Group-7/greenhouse-sims/vel15/dynamicCode/_a45a9ee607a1521e5a18540e56e569a7885b8d2e/../platforms/linux64IccDPInt32Opt/lib/libcodeStream_a45a9ee607a1521e5a18540e56e569a7885b8d2e.so
Using #calcEntry at line 128 in file "/work2/08396/ykhatri/stampede2/COE379L-Group-7/greenhouse-sims/vel15/system/blockMeshDict"
Using #codeStream with "/work2/08396/ykhatri/stampede2/COE379L-Group-7/greenhouse-sims/vel15/dynamicCode/platforms/linux64IccDPInt32Opt/lib/libcodeStream_6b95cae1ee6cdd4465af10fe9b443ba218305c21.so"
Creating new library in "dynamicCode/_6b95cae1ee6cdd4465af10fe9b443ba218305c21/platforms/linux64IccDPInt32Opt/lib/libcodeStream_6b95cae1ee6cdd4465af10fe9b443ba218305c21.so"
Invoking "wmake -s libso /work2/08396/ykhatri/stampede2/COE379L-Group-7/greenhouse-sims/vel15/dynamicCode/_6b95cae1ee6cdd4465af10fe9b443ba218305c21"
wmake libso /work2/08396/ykhatri/stampede2/COE379L-Group-7/greenhouse-sims/vel15/dynamicCode/_6b95cae1ee6cdd4465af10fe9b443ba218305c21
    ln: ./lnInclude
    wmkdep: codeStreamTemplate.C
    Ctoo: codeStreamTemplate.C
    ld: /work2/08396/ykhatri/stampede2/COE379L-Group-7/greenhouse-sims/vel15/dynamicCode/_6b95cae1ee6cdd4465af10fe9b443ba218305c21/../platforms/linux64IccDPInt32Opt/lib/libcodeStream_6b95cae1ee6cdd4465af10fe9b443ba218305c21.so
Using #calcEntry at line 129 in file "/work2/08396/ykhatri/stampede2/COE379L-Group-7/greenhouse-sims/vel15/system/blockMeshDict"
Using #codeStream with "/work2/08396/ykhatri/stampede2/COE379L-Group-7/greenhouse-sims/vel15/dynamicCode/platforms/linux64IccDPInt32Opt/lib/libcodeStream_64959b95c03ddfcfb9cde3000ea8454b06b4a58e.so"
Creating new library in "dynamicCode/_64959b95c03ddfcfb9cde3000ea8454b06b4a58e/platforms/linux64IccDPInt32Opt/lib/libcodeStream_64959b95c03ddfcfb9cde3000ea8454b06b4a58e.so"
Invoking "wmake -s libso /work2/08396/ykhatri/stampede2/COE379L-Group-7/greenhouse-sims/vel15/dynamicCode/_64959b95c03ddfcfb9cde3000ea8454b06b4a58e"
wmake libso /work2/08396/ykhatri/stampede2/COE379L-Group-7/greenhouse-sims/vel15/dynamicCode/_64959b95c03ddfcfb9cde3000ea8454b06b4a58e
    ln: ./lnInclude
    wmkdep: codeStreamTemplate.C
    Ctoo: codeStreamTemplate.C
    ld: /work2/08396/ykhatri/stampede2/COE379L-Group-7/greenhouse-sims/vel15/dynamicCode/_64959b95c03ddfcfb9cde3000ea8454b06b4a58e/../platforms/linux64IccDPInt32Opt/lib/libcodeStream_64959b95c03ddfcfb9cde3000ea8454b06b4a58e.so
Using #calcEntry at line 130 in file "/work2/08396/ykhatri/stampede2/COE379L-Group-7/greenhouse-sims/vel15/system/blockMeshDict"
Using #codeStream with "/work2/08396/ykhatri/stampede2/COE379L-Group-7/greenhouse-sims/vel15/dynamicCode/platforms/linux64IccDPInt32Opt/lib/libcodeStream_084607e4990bc1239f1690373ede6fe9fb85bfe9.so"
Creating new library in "dynamicCode/_084607e4990bc1239f1690373ede6fe9fb85bfe9/platforms/linux64IccDPInt32Opt/lib/libcodeStream_084607e4990bc1239f1690373ede6fe9fb85bfe9.so"
Invoking "wmake -s libso /work2/08396/ykhatri/stampede2/COE379L-Group-7/greenhouse-sims/vel15/dynamicCode/_084607e4990bc1239f1690373ede6fe9fb85bfe9"
wmake libso /work2/08396/ykhatri/stampede2/COE379L-Group-7/greenhouse-sims/vel15/dynamicCode/_084607e4990bc1239f1690373ede6fe9fb85bfe9
    ln: ./lnInclude
    wmkdep: codeStreamTemplate.C
    Ctoo: codeStreamTemplate.C
    ld: /work2/08396/ykhatri/stampede2/COE379L-Group-7/greenhouse-sims/vel15/dynamicCode/_084607e4990bc1239f1690373ede6fe9fb85bfe9/../platforms/linux64IccDPInt32Opt/lib/libcodeStream_084607e4990bc1239f1690373ede6fe9fb85bfe9.so
Using #calcEntry at line 132 in file "/work2/08396/ykhatri/stampede2/COE379L-Group-7/greenhouse-sims/vel15/system/blockMeshDict"
Using #codeStream with "/work2/08396/ykhatri/stampede2/COE379L-Group-7/greenhouse-sims/vel15/dynamicCode/platforms/linux64IccDPInt32Opt/lib/libcodeStream_83e60205884cb41b720fef2b121e8681d92c688a.so"
Creating new library in "dynamicCode/_83e60205884cb41b720fef2b121e8681d92c688a/platforms/linux64IccDPInt32Opt/lib/libcodeStream_83e60205884cb41b720fef2b121e8681d92c688a.so"
Invoking "wmake -s libso /work2/08396/ykhatri/stampede2/COE379L-Group-7/greenhouse-sims/vel15/dynamicCode/_83e60205884cb41b720fef2b121e8681d92c688a"
wmake libso /work2/08396/ykhatri/stampede2/COE379L-Group-7/greenhouse-sims/vel15/dynamicCode/_83e60205884cb41b720fef2b121e8681d92c688a
    ln: ./lnInclude
    wmkdep: codeStreamTemplate.C
    Ctoo: codeStreamTemplate.C
    ld: /work2/08396/ykhatri/stampede2/COE379L-Group-7/greenhouse-sims/vel15/dynamicCode/_83e60205884cb41b720fef2b121e8681d92c688a/../platforms/linux64IccDPInt32Opt/lib/libcodeStream_83e60205884cb41b720fef2b121e8681d92c688a.so
Using #calcEntry at line 133 in file "/work2/08396/ykhatri/stampede2/COE379L-Group-7/greenhouse-sims/vel15/system/blockMeshDict"
Using #codeStream with "/work2/08396/ykhatri/stampede2/COE379L-Group-7/greenhouse-sims/vel15/dynamicCode/platforms/linux64IccDPInt32Opt/lib/libcodeStream_c0942401e905dd08b00e77a6a79c697455f4b600.so"
Creating new library in "dynamicCode/_c0942401e905dd08b00e77a6a79c697455f4b600/platforms/linux64IccDPInt32Opt/lib/libcodeStream_c0942401e905dd08b00e77a6a79c697455f4b600.so"
Invoking "wmake -s libso /work2/08396/ykhatri/stampede2/COE379L-Group-7/greenhouse-sims/vel15/dynamicCode/_c0942401e905dd08b00e77a6a79c697455f4b600"
wmake libso /work2/08396/ykhatri/stampede2/COE379L-Group-7/greenhouse-sims/vel15/dynamicCode/_c0942401e905dd08b00e77a6a79c697455f4b600
    ln: ./lnInclude
    wmkdep: codeStreamTemplate.C
    Ctoo: codeStreamTemplate.C
    ld: /work2/08396/ykhatri/stampede2/COE379L-Group-7/greenhouse-sims/vel15/dynamicCode/_c0942401e905dd08b00e77a6a79c697455f4b600/../platforms/linux64IccDPInt32Opt/lib/libcodeStream_c0942401e905dd08b00e77a6a79c697455f4b600.so
Using #calcEntry at line 136 in file "/work2/08396/ykhatri/stampede2/COE379L-Group-7/greenhouse-sims/vel15/system/blockMeshDict"
Using #codeStream with "/work2/08396/ykhatri/stampede2/COE379L-Group-7/greenhouse-sims/vel15/dynamicCode/platforms/linux64IccDPInt32Opt/lib/libcodeStream_02b66a94c65a984c3e0b80f97caf08e09816a177.so"
Creating new library in "dynamicCode/_02b66a94c65a984c3e0b80f97caf08e09816a177/platforms/linux64IccDPInt32Opt/lib/libcodeStream_02b66a94c65a984c3e0b80f97caf08e09816a177.so"
Invoking "wmake -s libso /work2/08396/ykhatri/stampede2/COE379L-Group-7/greenhouse-sims/vel15/dynamicCode/_02b66a94c65a984c3e0b80f97caf08e09816a177"
wmake libso /work2/08396/ykhatri/stampede2/COE379L-Group-7/greenhouse-sims/vel15/dynamicCode/_02b66a94c65a984c3e0b80f97caf08e09816a177
    ln: ./lnInclude
    wmkdep: codeStreamTemplate.C
    Ctoo: codeStreamTemplate.C
    ld: /work2/08396/ykhatri/stampede2/COE379L-Group-7/greenhouse-sims/vel15/dynamicCode/_02b66a94c65a984c3e0b80f97caf08e09816a177/../platforms/linux64IccDPInt32Opt/lib/libcodeStream_02b66a94c65a984c3e0b80f97caf08e09816a177.so
Using #calcEntry at line 137 in file "/work2/08396/ykhatri/stampede2/COE379L-Group-7/greenhouse-sims/vel15/system/blockMeshDict"
Using #calcEntry at line 138 in file "/work2/08396/ykhatri/stampede2/COE379L-Group-7/greenhouse-sims/vel15/system/blockMeshDict"
Using #calcEntry at line 139 in file "/work2/08396/ykhatri/stampede2/COE379L-Group-7/greenhouse-sims/vel15/system/blockMeshDict"
Creating block edges
No non-planar block faces defined
Creating topology blocks
Creating topology patches

Creating block mesh topology

Check topology

	Basic statistics
		Number of internal faces : 12
		Number of boundary faces : 30
		Number of defined boundary faces : 30
		Number of undefined boundary faces : 0
	Checking patch -> block consistency

Creating block offsets
Creating merge list .

Creating polyMesh from blockMesh
Creating points with scale 1
    Block 0 cell size :
        i : 1.333333333333332 .. 1.333333333333334
        j : 1.33333333333333 .. 1.333333333333332
        k : 1.380952380952381 .. 1.380952380952383
    Block 1 cell size :
        i : 1.333333333333332 .. 1.333333333333334
        j : 1.299999999999999 .. 1.300000000000002
        k : 1.380952380952381 .. 1.380952380952383
    Block 2 cell size :
        i : 1.333333333333332 .. 1.333333333333334
        j : 1.333333333333339 .. 1.333333333333334
        k : 1.380952380952381 .. 1.380952380952383
    Block 3 cell size :
        i : 1.299999999999999 .. 1.300000000000002
        j : 1.33333333333333 .. 1.333333333333332
        k : 1.380952380952381 .. 1.380952380952383
    Block 4 cell size :
        i : 1.299999999999999 .. 1.300000000000002
        j : 1.333333333333339 .. 1.333333333333334
        k : 1.380952380952381 .. 1.380952380952383
    Block 5 cell size :
        i : 1.299999999999999 .. 1.300000000000002
        j : 1.299999999999999 .. 1.300000000000002
        k : 1.380952380952381 .. 1.380952380952383
    Block 6 cell size :
        i : 1.333333333333334 .. 1.333333333333332
        j : 1.33333333333333 .. 1.333333333333332
        k : 1.380952380952381 .. 1.380952380952383
    Block 7 cell size :
        i : 1.333333333333334 .. 1.333333333333332
        j : 1.299999999999999 .. 1.300000000000002
        k : 1.380952380952381 .. 1.380952380952383
    Block 8 cell size :
        i : 1.333333333333334 .. 1.333333333333332
        j : 1.333333333333339 .. 1.333333333333334
        k : 1.380952380952381 .. 1.380952380952383
Creating cells
Creating patches

There are no merge patch pairs edges

Adding cell zones
    0	main

Writing polyMesh
----------------
Mesh Information
----------------
  boundingBox: (-29 -29 0) (29 29 29.00000000000001)
  nPoints: 44550
  nCells: 40656
  nFaces: 125752
  nInternalFaces: 118184
----------------
Patches
----------------
  patch 0 (start: 118184 size: 924) name: yMinusWall
  patch 1 (start: 119108 size: 924) name: yPlusWall
  patch 2 (start: 120032 size: 924) name: inlet
  patch 3 (start: 120956 size: 924) name: outlet
  patch 4 (start: 121880 size: 1936) name: bottomWall
  patch 5 (start: 123816 size: 1936) name: topWall

End

